Version 4
SHEET 1 1140 680
WIRE 384 -80 160 -80
WIRE 816 -80 384 -80
WIRE 160 -48 160 -80
WIRE 384 -48 384 -80
WIRE 816 -48 816 -80
WIRE 384 64 384 32
WIRE 448 64 384 64
WIRE 544 64 512 64
WIRE 544 80 544 64
WIRE 160 112 160 32
WIRE 384 112 384 64
WIRE 160 176 160 112
WIRE 384 176 384 112
WIRE 816 208 816 176
WIRE -96 224 -128 224
WIRE 32 224 -16 224
WIRE 96 224 32 224
WIRE 512 224 448 224
WIRE 560 224 512 224
WIRE 656 224 640 224
WIRE 32 240 32 224
WIRE 512 240 512 224
WIRE 160 304 160 272
WIRE 32 320 32 304
WIRE 384 320 384 272
WIRE 512 320 512 304
WIRE 32 336 32 320
WIRE 160 336 160 304
WIRE 384 336 384 320
WIRE 512 336 512 320
WIRE 160 432 160 416
WIRE 272 432 160 432
WIRE 384 432 384 416
WIRE 384 432 272 432
WIRE 272 464 272 432
FLAG 816 32 0
FLAG 272 544 0
FLAG 160 112 Vc1
FLAG 384 112 Vc2
FLAG 272 432 Ve
FLAG 816 288 0
FLAG 816 176 Vb
FLAG -128 224 Vb
FLAG 656 224 Vb
FLAG 160 304 Ve1
FLAG 384 320 Ve2
FLAG 32 416 0
FLAG 512 416 0
FLAG 32 320 Vi1
FLAG 512 320 Vi2
FLAG 544 160 0
FLAG 544 64 Vo
SYMBOL npn 96 176 R0
SYMATTR InstName Q1
SYMATTR Value 2N3904
SYMBOL npn 448 176 M0
SYMATTR InstName Q2
SYMATTR Value 2N3904
SYMBOL res 368 -64 R0
SYMATTR InstName R2
SYMATTR Value 1k5
SYMATTR SpiceLine tol=1
SYMBOL res 144 -64 R0
SYMATTR InstName R3
SYMATTR Value 1k5
SYMATTR SpiceLine tol=1
SYMBOL voltage 816 -64 R0
WINDOW 123 0 0 Left 2
WINDOW 39 0 0 Left 2
SYMATTR InstName V1
SYMATTR Value 20
SYMBOL res 144 320 R0
SYMATTR InstName R4
SYMATTR Value 0
SYMBOL res 368 320 R0
SYMATTR InstName R5
SYMATTR Value 0
SYMBOL voltage 816 192 R0
WINDOW 123 0 0 Left 2
WINDOW 39 0 0 Left 2
SYMATTR InstName V4
SYMATTR Value 7
SYMBOL res 656 208 R90
WINDOW 0 0 56 VBottom 2
WINDOW 3 32 56 VTop 2
SYMATTR InstName R7
SYMATTR Value 150k
SYMBOL res 0 208 R90
WINDOW 0 0 56 VBottom 2
WINDOW 3 32 56 VTop 2
SYMATTR InstName R9
SYMATTR Value 150k
SYMBOL voltage 32 320 R0
WINDOW 123 0 0 Left 2
WINDOW 39 0 0 Left 2
SYMATTR InstName V2
SYMATTR Value ""
SYMBOL voltage 512 320 R0
WINDOW 123 0 0 Left 2
WINDOW 39 0 0 Left 2
SYMATTR InstName V3
SYMATTR Value 0
SYMBOL cap 16 240 R0
SYMATTR InstName C1
SYMATTR Value 10µ
SYMBOL cap 496 240 R0
SYMATTR InstName C2
SYMATTR Value 10µ
SYMBOL cap 512 48 R90
WINDOW 0 0 32 VBottom 2
WINDOW 3 32 32 VTop 2
SYMATTR InstName C3
SYMATTR Value 10µ
SYMBOL res 528 64 R0
SYMATTR InstName R1
SYMATTR Value 1Meg
SYMBOL res 256 448 R0
SYMATTR InstName R6
SYMATTR Value 1k
TEXT 792 88 Left 2 !.tran 5m
TEXT 712 336 Left 2 ;Tensiune de polarizare a bazei
